Version 4
SHEET 1 1588 680
WIRE 864 -464 528 -464
WIRE 528 -400 528 -464
WIRE 864 -352 864 -464
WIRE 896 -352 864 -352
WIRE 1056 -336 960 -336
WIRE 1200 -336 1056 -336
WIRE 752 -320 688 -320
WIRE 864 -320 832 -320
WIRE 896 -320 864 -320
WIRE 528 -272 528 -320
WIRE 688 -272 688 -320
WIRE 480 -256 208 -256
WIRE 496 -256 480 -256
WIRE 864 -224 864 -320
WIRE 896 -224 864 -224
WIRE 1056 -224 1056 -336
WIRE 1056 -224 976 -224
WIRE 480 -208 96 -208
WIRE -112 -32 -416 -32
WIRE -48 -32 -112 -32
WIRE 16 -32 -48 -32
WIRE 384 -32 16 -32
WIRE 896 -32 688 -32
WIRE 944 -32 896 -32
WIRE 1088 -32 1008 -32
WIRE 1104 -32 1088 -32
WIRE 688 16 688 -32
WIRE -416 32 -416 -32
WIRE 384 32 384 -32
WIRE -112 48 -112 -32
WIRE -48 48 -48 -32
WIRE 16 48 16 -32
WIRE 896 48 896 -32
WIRE 768 112 432 112
WIRE 1024 112 1008 112
WIRE 1104 112 1104 -32
WIRE 1104 112 1024 112
WIRE -416 176 -416 112
WIRE -384 176 -416 176
WIRE -112 176 -112 112
WIRE -112 176 -384 176
WIRE -48 176 -48 112
WIRE -48 176 -112 176
WIRE 16 176 16 112
WIRE 16 176 -48 176
WIRE 96 176 96 -208
WIRE 96 176 16 176
WIRE 112 176 96 176
WIRE 208 176 208 -256
WIRE 208 176 192 176
WIRE 256 176 208 176
WIRE 384 176 384 128
WIRE 384 176 336 176
WIRE 384 192 384 176
WIRE 688 192 688 80
WIRE 688 192 384 192
WIRE 768 192 688 192
WIRE 1104 192 1104 112
WIRE 1104 192 1024 192
WIRE -592 208 -592 192
WIRE -112 224 -112 176
WIRE -48 224 -48 176
WIRE 16 224 16 176
WIRE -592 240 -592 208
WIRE -416 240 -416 176
WIRE 384 240 384 192
WIRE 768 272 560 272
WIRE 1200 272 1200 -336
WIRE 1200 272 1024 272
WIRE 560 320 560 272
WIRE 560 320 432 320
WIRE -592 352 -592 320
WIRE -416 352 -416 320
WIRE -416 352 -592 352
WIRE -112 352 -112 288
WIRE -112 352 -416 352
WIRE -48 352 -48 288
WIRE -48 352 -112 352
WIRE 16 352 16 288
WIRE 16 352 -48 352
WIRE 128 352 16 352
WIRE 384 352 384 336
WIRE 384 352 128 352
WIRE 896 352 896 336
WIRE 896 352 384 352
FLAG -384 176 12V
FLAG -592 208 5V
FLAG 1088 -32 5V
FLAG 528 -192 0
FLAG 128 352 0
FLAG 688 -192 0
FLAG 928 -304 0
FLAG 928 -368 5V
SYMBOL voltage -416 16 R0
WINDOW 123 0 0 Left 0
WINDOW 39 24 124 Left 2
SYMATTR SpiceLine Rser=10m
SYMATTR InstName V1
SYMATTR Value 12
SYMBOL voltage -416 224 R0
WINDOW 123 0 0 Left 0
WINDOW 39 24 124 Left 2
SYMATTR SpiceLine Rser=10m
SYMATTR InstName V2
SYMATTR Value 12
SYMBOL nmos 432 240 M0
SYMATTR InstName M1
SYMATTR Value IRF6623
SYMBOL nmos 432 32 M0
SYMATTR InstName M2
SYMATTR Value IRF6623
SYMBOL PowerProducts\\LTC4449 896 192 M0
SYMATTR InstName U1
SYMBOL diode 1008 -48 R90
WINDOW 0 0 32 VBottom 2
WINDOW 3 32 32 VTop 2
SYMATTR InstName D1
SYMATTR Value 1N4148
SYMBOL cap 672 16 R0
SYMATTR InstName C1
SYMATTR Value 100n
SYMBOL voltage -592 224 R0
WINDOW 123 0 0 Left 0
WINDOW 39 0 0 Left 0
SYMATTR InstName V3
SYMATTR Value 3.3
SYMBOL ind 352 160 R90
WINDOW 0 5 56 VBottom 2
WINDOW 3 32 56 VTop 2
SYMATTR InstName L1
SYMATTR Value 47µ IC=0
SYMBOL res 208 160 R90
WINDOW 0 0 56 VBottom 2
WINDOW 3 32 56 VTop 2
SYMATTR InstName R1
SYMATTR Value 1m
SYMBOL e 528 -288 R0
SYMATTR InstName E1
SYMATTR Value 200
SYMBOL voltage 528 -416 R0
WINDOW 123 0 0 Left 0
WINDOW 39 0 0 Left 0
SYMATTR InstName V4
SYMATTR Value 1.25
SYMBOL res 848 -336 R90
WINDOW 0 0 56 VBottom 2
WINDOW 3 32 56 VTop 2
SYMATTR InstName R2
SYMATTR Value 6k8
SYMBOL res 992 -240 R90
WINDOW 0 0 56 VBottom 2
WINDOW 3 32 56 VTop 2
SYMATTR InstName R3
SYMATTR Value 180k
SYMBOL voltage 688 -288 R0
WINDOW 123 0 0 Left 0
WINDOW 39 0 0 Left 0
SYMATTR InstName V5
SYMATTR Value PWL(0 1.25 1m 0 5m 2.5 8m 1.25)
SYMBOL Comparators\\LT1720 928 -400 R0
SYMATTR InstName U2
SYMBOL cap -64 48 R0
SYMATTR InstName C2
SYMATTR Value 22µ
SYMBOL cap 0 48 R0
SYMATTR InstName C3
SYMATTR Value 22µ
SYMBOL cap -128 48 R0
SYMATTR InstName C4
SYMATTR Value 22µ
SYMBOL cap -64 224 R0
SYMATTR InstName C5
SYMATTR Value 22µ
SYMBOL cap 0 224 R0
SYMATTR InstName C6
SYMATTR Value 22µ
SYMBOL cap -128 224 R0
SYMATTR InstName C7
SYMATTR Value 22µ
TEXT -632 376 Left 2 !.tran 10m startup uic
